INFO:__main__:Loading input file: data/processed/test_input_281_sites.csv
INFO:__main__:Starting parallel processing with 25 workers...

================================================================================
UNIVERSAL WEBSITE SCRAPER
================================================================================
Input file:        data/processed/test_input_281_sites.csv
Output file:       data/processed/test_results_quick.csv
Total URLs:        281
Mode:              quick
Workers:           25

Configuration:
  Check static:    True
  Extract emails:  False
  Extract phones:  False
  Scrape mode:     single
  AI analysis:     False

Estimated time:    0.2 min (14.1 sec)
================================================================================

[1/281] 0.4% | ETA: 7.7min | Speed: 0.6 items/sec | http://hvacalternativedfw.com/                     - success
[2/281] 0.7% | ETA: 5.1min | Speed: 0.9 items/sec | https://www.theontimeexperts.com/?utm_source=googl - http_error_403
[3/281] 1.1% | ETA: 3.4min | Speed: 1.3 items/sec | http://www.airchampion.com/                        - success
[4/281] 1.4% | ETA: 2.6min | Speed: 1.8 items/sec | https://hotandcoolhvac.squarespace.com/            - dynamic
[5/281] 1.8% | ETA: 2.1min | Speed: 2.2 items/sec | https://www.justintimeaircondition.com/?utm_source - success
[6/281] 2.1% | ETA: 2.2min | Speed: 2.1 items/sec | http://www.tehvac.com/                             - success
[7/281] 2.5% | ETA: 2.2min | Speed: 2.1 items/sec | https://www.ellisac.com/?utm_source=gmb_listing&ut - success
[8/281] 2.8% | ETA: 1.9min | Speed: 2.4 items/sec | https://www.morganproservices.com/                 - http_error_403
[9/281] 3.2% | ETA: 1.7min | Speed: 2.7 items/sec | https://www.comfortstaracrepairhouston.com/        - success
[10/281] 3.6% | ETA: 2.2min | Speed: 2.0 items/sec | https://www.accomfort.us/?utm_source=gbp&utm_mediu - success
[11/281] 3.9% | ETA: 2.0min | Speed: 2.2 items/sec | https://gopaschal.com/service-areas/arlington-tx?u - success
[12/281] 4.3% | ETA: 2.2min | Speed: 2.1 items/sec | https://www.unitedmechanical.com/                  - success
[13/281] 4.6% | ETA: 2.1min | Speed: 2.1 items/sec | https://www.daltonairandheat.com/?utm_source=googl - success
[14/281] 5.0% | ETA: 2.1min | Speed: 2.1 items/sec | https://onthespothvac.com/?utm_source=GBP&utm_medi - http_error_403
[15/281] 5.3% | ETA: 2.0min | Speed: 2.3 items/sec | https://htownacrepair.com/                         - dynamic
[16/281] 5.7% | ETA: 1.8min | Speed: 2.4 items/sec | https://silverspurhome.com/?utm_source=google&utm_ - success
[17/281] 6.0% | ETA: 1.7min | Speed: 2.5 items/sec | http://www.denalics.com/                           - success
[18/281] 6.4% | ETA: 1.7min | Speed: 2.6 items/sec | https://greaterhoustonhvac.com/                    - http_error_403
[19/281] 6.8% | ETA: 1.7min | Speed: 2.6 items/sec | https://extremecomfortac.com/                      - success
[20/281] 7.1% | ETA: 1.7min | Speed: 2.6 items/sec | https://airconsdallas.com/                         - success
[21/281] 7.5% | ETA: 1.6min | Speed: 2.7 items/sec | https://www.elitehomeexp.com/?utm_source=google&ut - connection_error
[22/281] 7.8% | ETA: 1.7min | Speed: 2.6 items/sec | http://www.newgenm.com/                            - success
[23/281] 8.2% | ETA: 1.6min | Speed: 2.6 items/sec | http://365heating-air.net/                         - success
[24/281] 8.5% | ETA: 1.5min | Speed: 2.8 items/sec | http://www.environmentalair.com/                   - success
[25/281] 8.9% | ETA: 1.5min | Speed: 2.9 items/sec | http://www.americanhvacstaff.com/                  - success
[26/281] 9.3% | ETA: 1.5min | Speed: 2.9 items/sec | https://www.universalhomeexperts.com/?utm_source=G - success
[27/281] 9.6% | ETA: 1.5min | Speed: 2.9 items/sec | https://www.tx1st.com/                             - http_error_404
[28/281] 10.0% | ETA: 1.5min | Speed: 2.9 items/sec | https://astardfw.com/air-force-one-plumbing-heatin - success
[29/281] 10.3% | ETA: 1.4min | Speed: 3.0 items/sec | http://standard-repair-hvac.com/Dallastx           - success
[30/281] 10.7% | ETA: 1.4min | Speed: 3.1 items/sec | http://www.acheatservices.com/                     - success
[31/281] 11.0% | ETA: 1.3min | Speed: 3.1 items/sec | https://thechillbrothers.com/ac-repair-maintenance - success
[32/281] 11.4% | ETA: 1.3min | Speed: 3.1 items/sec | https://citylineairconditioning.com/?utm_source=GM - success
[33/281] 11.7% | ETA: 1.4min | Speed: 2.9 items/sec | http://www.dfwhvac.com/                            - dynamic
[34/281] 12.1% | ETA: 1.4min | Speed: 2.9 items/sec | https://www.airreyservice.com/                     - dynamic
[35/281] 12.5% | ETA: 1.4min | Speed: 3.0 items/sec | http://abcairoftexas.com/?utm_source=google&utm_me - success
[36/281] 12.8% | ETA: 1.3min | Speed: 3.0 items/sec | https://duarteshvacservices.com/                   - success
[37/281] 13.2% | ETA: 1.3min | Speed: 3.0 items/sec | https://www.dvohvac.com/?utm_source=google&utm_med - success
[38/281] 13.5% | ETA: 1.3min | Speed: 3.1 items/sec | http://www.uniserveac.com/                         - dynamic
[39/281] 13.9% | ETA: 1.3min | Speed: 3.2 items/sec | https://www.aircaresoutheast.com/                  - http_error_202
[40/281] 14.2% | ETA: 1.3min | Speed: 3.2 items/sec | https://airprohouston.com/                         - http_error_403
[41/281] 14.6% | ETA: 1.3min | Speed: 3.2 items/sec | https://www.everyonelovesbacon.com/rockwall/?utm_s - success
[42/281] 14.9% | ETA: 1.3min | Speed: 3.2 items/sec | https://www.aplusac.net/?utm_source=gmb-listing&ut - success
[43/281] 15.3% | ETA: 1.2min | Speed: 3.2 items/sec | https://www.coomesair.com/?utm_source=google-gbp&u - success
[44/281] 15.7% | ETA: 1.2min | Speed: 3.2 items/sec | https://otp-hvac.com/                              - success
[45/281] 16.0% | ETA: 1.2min | Speed: 3.3 items/sec | https://diamondblueair.com/?utm_source=google&utm_ - success
[46/281] 16.4% | ETA: 1.2min | Speed: 3.3 items/sec | https://www.airtechofkaty.com/?utm_source=google-g - success
[47/281] 16.7% | ETA: 1.2min | Speed: 3.4 items/sec | http://www.mirtron.com/                            - http_error_202
[48/281] 17.1% | ETA: 1.2min | Speed: 3.4 items/sec | http://www.airtempdallas.com/                      - success
[49/281] 17.4% | ETA: 1.1min | Speed: 3.4 items/sec | https://www.applianceandaircare.com/?utm_source=go - success
[50/281] 17.8% | ETA: 1.1min | Speed: 3.4 items/sec | https://spencerairconditioning.com/?utm_medium=org - success
[51/281] 18.1% | ETA: 1.1min | Speed: 3.4 items/sec | https://callhare.com/                              - success
[52/281] 18.5% | ETA: 1.1min | Speed: 3.5 items/sec | https://www.asapairhoustonac.com/                  - success
[53/281] 18.9% | ETA: 1.1min | Speed: 3.5 items/sec | https://www.air75hvac.com/                         - http_error_202
[54/281] 19.2% | ETA: 1.1min | Speed: 3.6 items/sec | http://www.theclimatetech.com/                     - success
[55/281] 19.6% | ETA: 1.1min | Speed: 3.5 items/sec | https://www.callmedley.com/?utm_source=organic&utm - success
[56/281] 19.9% | ETA: 1.1min | Speed: 3.6 items/sec | http://www.ethanclark.com/                         - success
[57/281] 20.3% | ETA: 1.0min | Speed: 3.6 items/sec | https://75degreeac.com/                            - success
[58/281] 20.6% | ETA: 1.1min | Speed: 3.4 items/sec | https://www.callberrybest.com/                     - http_error_500
[59/281] 21.0% | ETA: 1.1min | Speed: 3.5 items/sec | https://www.coolithouston.com/                     - success
[60/281] 21.4% | ETA: 1.1min | Speed: 3.5 items/sec | https://www.hagenrg.com/                           - success
[61/281] 21.7% | ETA: 1.1min | Speed: 3.4 items/sec | https://conoverair.com/?utm_source=GBP&utm_medium= - success
[62/281] 22.1% | ETA: 1.1min | Speed: 3.3 items/sec | https://chimneyrockac.com/?utm_source=google&utm_m - success
[63/281] 22.4% | ETA: 1.1min | Speed: 3.3 items/sec | http://airsolservices.com/                         - success
[64/281] 22.8% | ETA: 1.1min | Speed: 3.3 items/sec | https://www.dallashvacparts.com/                   - dynamic
[65/281] 23.1% | ETA: 1.1min | Speed: 3.3 items/sec | http://baker-jones.com/                            - success
[66/281] 23.5% | ETA: 1.1min | Speed: 3.4 items/sec | https://goldenrulecomfort.com/                     - success
[67/281] 23.8% | ETA: 1.1min | Speed: 3.3 items/sec | http://www.courtesyaconline.com/?utm_source=GMBlis - success
[68/281] 24.2% | ETA: 1.1min | Speed: 3.3 items/sec | https://air-control-dallas.ueniweb.com/?utm_campai - success
[69/281] 24.6% | ETA: 1.1min | Speed: 3.3 items/sec | http://www.dalcoac.com/                            - success
[70/281] 24.9% | ETA: 1.1min | Speed: 3.1 items/sec | http://geocontractorsllc.com/                      - dynamic
[71/281] 25.3% | ETA: 1.1min | Speed: 3.1 items/sec | https://www.mccannservices.com/                    - success
[72/281] 25.6% | ETA: 1.1min | Speed: 3.1 items/sec | https://www.bonairservice.com/                     - success
[73/281] 26.0% | ETA: 1.1min | Speed: 3.2 items/sec | https://www.airpatrolac.com/?utm_source=google&utm - success
[74/281] 26.3% | ETA: 1.1min | Speed: 3.1 items/sec | https://www.nicksplumbing.com/?utm_source=organic& - dynamic
[75/281] 26.7% | ETA: 1.1min | Speed: 3.1 items/sec | https://air-32.com/                                - success
[76/281] 27.0% | ETA: 1.2min | Speed: 2.9 items/sec | https://aireserv.com/central-west-houston/?cid=LST - http_error_403
[77/281] 27.4% | ETA: 1.3min | Speed: 2.6 items/sec | http://absolutecomfortmechanical.com/              - success
[78/281] 27.8% | ETA: 1.3min | Speed: 2.6 items/sec | http://www.spacecityhvac.com/                      - success
[79/281] 28.1% | ETA: 1.3min | Speed: 2.7 items/sec | https://5starhvaccontractors.com/                  - success
[80/281] 28.5% | ETA: 1.3min | Speed: 2.7 items/sec | https://dial1plumbing.com/                         - success
[81/281] 28.8% | ETA: 1.2min | Speed: 2.7 items/sec | https://www.richmondsair.com/?utm_source=gmb&utm_m - success
[82/281] 29.2% | ETA: 1.2min | Speed: 2.7 items/sec | https://www.callservicenow.com//?utm_source=GMB&ut - success
[83/281] 29.5% | ETA: 1.2min | Speed: 2.7 items/sec | https://www.frymire.com/?utm_source=google&utm_med - success
[84/281] 29.9% | ETA: 1.2min | Speed: 2.7 items/sec | http://www.amscoldpro.com/                         - dynamic
[85/281] 30.2% | ETA: 1.2min | Speed: 2.7 items/sec | http://www.eastinair.com/?utm_campaign=gmb         - success
[86/281] 30.6% | ETA: 1.2min | Speed: 2.7 items/sec | https://callcoolinaryarts.com/                     - success
[87/281] 31.0% | ETA: 1.2min | Speed: 2.8 items/sec | https://www.dallashvaccompany.org/                 - success
[88/281] 31.3% | ETA: 1.2min | Speed: 2.8 items/sec | https://ehshvac.com/?utm_source=google&utm_medium= - success
[89/281] 31.7% | ETA: 1.1min | Speed: 2.8 items/sec | https://www.aliefheatingandairconditioning.com/?ut - success
[90/281] 32.0% | ETA: 1.1min | Speed: 2.8 items/sec | https://mebrownac.com/                             - success
[91/281] 32.4% | ETA: 1.1min | Speed: 2.9 items/sec | https://aircheckmechanicalservices.com/            - success
[92/281] 32.7% | ETA: 1.1min | Speed: 2.8 items/sec | http://www.temperatureprodallas.com/?utm_source=go - dynamic
[93/281] 33.1% | ETA: 1.1min | Speed: 2.8 items/sec | https://www.blitzproservices.com/service-area/cypr - success
[94/281] 33.5% | ETA: 1.1min | Speed: 2.8 items/sec | https://proactiveairconditioning.com/              - success
[95/281] 33.8% | ETA: 1.1min | Speed: 2.8 items/sec | https://www.acprostx.com/                          - success
[96/281] 34.2% | ETA: 1.1min | Speed: 2.8 items/sec | https://www.uptownac.com/                          - success
[97/281] 34.5% | ETA: 1.1min | Speed: 2.8 items/sec | https://www.aircurrenthouston.com/                 - dynamic
[98/281] 34.9% | ETA: 1.1min | Speed: 2.8 items/sec | https://www.berkeys.com/?utm_campaign=gmb_be_home_ - success
[99/281] 35.2% | ETA: 1.1min | Speed: 2.8 items/sec | https://centralcityair.com/                        - success
[100/281] 35.6% | ETA: 1.1min | Speed: 2.8 items/sec | https://onecallhouston.com/?utm_source=google-gbp& - success
[101/281] 35.9% | ETA: 1.1min | Speed: 2.8 items/sec | https://salaair.com/                               - success
[102/281] 36.3% | ETA: 1.0min | Speed: 2.8 items/sec | https://sugarlandacandheating.com/                 - dynamic
[103/281] 36.7% | ETA: 1.0min | Speed: 2.9 items/sec | https://cool-master.us/                            - success
[104/281] 37.0% | ETA: 1.0min | Speed: 2.9 items/sec | https://www.churchservices.com/?utm_source=google- - dynamic
[105/281] 37.4% | ETA: 1.0min | Speed: 2.9 items/sec | https://mbkiser.com/                               - success
[106/281] 37.7% | ETA: 1.0min | Speed: 2.9 items/sec | http://www.heightsacandheating.com/                - dynamic
[107/281] 38.1% | ETA: 60s | Speed: 2.9 items/sec | https://www.fersahvac.com/                         - success
[108/281] 38.4% | ETA: 59s | Speed: 2.9 items/sec | https://calllukes.com/?utm_source=google&utm_mediu - success
[109/281] 38.8% | ETA: 59s | Speed: 2.9 items/sec | https://www.lexairconditioning.com/                - success
[110/281] 39.1% | ETA: 58s | Speed: 3.0 items/sec | https://grove-mechanical.com/                      - success
[111/281] 39.5% | ETA: 57s | Speed: 3.0 items/sec | http://www.mytexashomeservices.com/                - dynamic
[112/281] 39.9% | ETA: 56s | Speed: 3.0 items/sec | http://strikeforceac.com/?utm_source=GMB&utm_mediu - success
[113/281] 40.2% | ETA: 56s | Speed: 3.0 items/sec | https://villageplumbing.com/?utm_source=google&utm - http_error_403
[114/281] 40.6% | ETA: 55s | Speed: 3.0 items/sec | http://www.johnmooreservices.com/                  - http_error_403
[115/281] 40.9% | ETA: 55s | Speed: 3.0 items/sec | https://www.hooperplumbing.com/                    - success
[116/281] 41.3% | ETA: 54s | Speed: 3.1 items/sec | https://tltechs.com/                               - dynamic
[117/281] 41.6% | ETA: 53s | Speed: 3.1 items/sec | http://www.gilbertsac.com/?utm_campaign=gmb        - dynamic
[118/281] 42.0% | ETA: 53s | Speed: 3.1 items/sec | https://callmilestone.com/dallas/plumbing/         - success
[119/281] 42.3% | ETA: 53s | Speed: 3.1 items/sec | http://www.bayoucityac.com/                        - dynamic
[120/281] 42.7% | ETA: 52s | Speed: 3.1 items/sec | https://pmhvac.com/?utm_source=google&utm_medium=o - success
[121/281] 43.1% | ETA: 52s | Speed: 3.1 items/sec | http://www.revairtx.com/                           - dynamic
[122/281] 43.4% | ETA: 52s | Speed: 3.1 items/sec | https://www.coolcareac.com/?utm_source=gbp&utm_med - success
[123/281] 43.8% | ETA: 51s | Speed: 3.1 items/sec | https://callblueleafhvac.com/                      - dynamic
[124/281] 44.1% | ETA: 51s | Speed: 3.1 items/sec | https://bakerbrothersplumbing.com/?utm_campaign=gm - dynamic
[125/281] 44.5% | ETA: 50s | Speed: 3.1 items/sec | https://chapmanair.com/?utm_source=googlebusinessp - success
[126/281] 44.8% | ETA: 49s | Speed: 3.1 items/sec | https://www.northwindac.com/                       - http_error_403
[127/281] 45.2% | ETA: 50s | Speed: 3.1 items/sec | https://airdynastyac.com/?utm_source=google&utm_me - success
[128/281] 45.6% | ETA: 50s | Speed: 3.1 items/sec | http://www.callhoustonhvac.com/                    - success
[129/281] 45.9% | ETA: 49s | Speed: 3.1 items/sec | https://becoolachouston.com/?utm_source=google&utm - success
[130/281] 46.3% | ETA: 48s | Speed: 3.1 items/sec | https://justfixittoday.com/locations/houston/?utm_ - success
[131/281] 46.6% | ETA: 48s | Speed: 3.1 items/sec | https://www.airstarnow.com/                        - success
[132/281] 47.0% | ETA: 48s | Speed: 3.1 items/sec | https://mondragonac.com/                           - dynamic
[133/281] 47.3% | ETA: 47s | Speed: 3.1 items/sec | https://www.billygo.com/service-area/dallas-tx/    - success
[134/281] 47.7% | ETA: 47s | Speed: 3.1 items/sec | https://www.valderramainc.com/                     - success
[135/281] 48.0% | ETA: 47s | Speed: 3.1 items/sec | https://www.abacusplumbing.net/?utm_campaign=gmb_a - success
[136/281] 48.4% | ETA: 46s | Speed: 3.2 items/sec | https://airtonheatingac.com/?utm_source=organic&ut - success
[137/281] 48.8% | ETA: 45s | Speed: 3.2 items/sec | http://www.kandsac.com/                            - success
[138/281] 49.1% | ETA: 45s | Speed: 3.2 items/sec | https://www.ars.com/houston?utm_source=google&utm_ - success
[139/281] 49.5% | ETA: 45s | Speed: 3.2 items/sec | https://www.dynamicflowhvac.com/                   - dynamic
[140/281] 49.8% | ETA: 44s | Speed: 3.2 items/sec | http://jadeair.net/                                - success
[141/281] 50.2% | ETA: 44s | Speed: 3.2 items/sec | https://24sevenac.net/?utm_campaign=gmb            - success
[142/281] 50.5% | ETA: 43s | Speed: 3.2 items/sec | https://quigleyac.com/?utm_source=google+business+ - success
[143/281] 50.9% | ETA: 43s | Speed: 3.2 items/sec | https://airtron.com/houston/?utm_source=gmb&utm_me - dynamic
[144/281] 51.2% | ETA: 42s | Speed: 3.3 items/sec | https://www.callmrreliable.com/?utm_source=GBP&utm - http_error_403
[145/281] 51.6% | ETA: 42s | Speed: 3.3 items/sec | https://therightchoicetexas.com/                   - success
[146/281] 52.0% | ETA: 41s | Speed: 3.3 items/sec | http://www.davelaneair.com/                        - success
[147/281] 52.3% | ETA: 41s | Speed: 3.3 items/sec | http://masteracandheat.com/                        - success
[148/281] 52.7% | ETA: 40s | Speed: 3.3 items/sec | https://www.houseproac.com/?utm_source=GBP&utm_med - success
[149/281] 53.0% | ETA: 40s | Speed: 3.3 items/sec | https://championandnash.com/aircon                 - dynamic
[150/281] 53.4% | ETA: 40s | Speed: 3.3 items/sec | http://www.excelairconditioning.com/               - success
[151/281] 53.7% | ETA: 40s | Speed: 3.3 items/sec | https://www.bigtexascomfort.com/?utm_campaign=gmb  - success
[152/281] 54.1% | ETA: 39s | Speed: 3.3 items/sec | https://www.houstonsmartair.com/                   - success
[153/281] 54.4% | ETA: 39s | Speed: 3.3 items/sec | https://texasstrongmechanical.com/hvac-services/hv - dynamic
[154/281] 54.8% | ETA: 38s | Speed: 3.3 items/sec | https://www.bellaireair.com/?utm_source=google&utm - success
[155/281] 55.2% | ETA: 38s | Speed: 3.3 items/sec | https://www.missionac.com/locations/houston-tx/?ut - success
[156/281] 55.5% | ETA: 38s | Speed: 3.3 items/sec | https://vibrantmechanical.com/                     - dynamic
[157/281] 55.9% | ETA: 37s | Speed: 3.3 items/sec | https://acrescue.net/                              - success
[158/281] 56.2% | ETA: 37s | Speed: 3.3 items/sec | https://codyandsons.com/?utm_source=google&utm_med - success
[159/281] 56.6% | ETA: 37s | Speed: 3.3 items/sec | https://alphahvac.site/                            - success
[160/281] 56.9% | ETA: 37s | Speed: 3.3 items/sec | https://www.airtechofhouston.com/?utm_source=googl - success
[161/281] 57.3% | ETA: 36s | Speed: 3.3 items/sec | http://www.acecomfort-tx.com/                      - success
[162/281] 57.7% | ETA: 36s | Speed: 3.3 items/sec | http://www.airteamltd.com/                         - success
[163/281] 58.0% | ETA: 36s | Speed: 3.3 items/sec | https://www.royalairhouston.com/                   - dynamic
[164/281] 58.4% | ETA: 35s | Speed: 3.3 items/sec | https://radiantplumbing.com/austin/?utm_source=goo - http_error_403
[165/281] 58.7% | ETA: 35s | Speed: 3.3 items/sec | http://www.tigerairtx.com/?utm_source=google&utm_m - success
[166/281] 59.1% | ETA: 34s | Speed: 3.3 items/sec | https://allstarairtexas.com/                       - success
[167/281] 59.4% | ETA: 35s | Speed: 3.3 items/sec | http://austinairconditioning.com/?utm_source=gmb&u - http_error_403
[168/281] 59.8% | ETA: 35s | Speed: 3.3 items/sec | https://www.rescueairtx.com/                       - success
[169/281] 60.1% | ETA: 34s | Speed: 3.3 items/sec | https://www.texasairzone.com/?utm_source=google&ut - http_error_202
[170/281] 60.5% | ETA: 34s | Speed: 3.3 items/sec | https://aadheatingairconditioning.xyz/             - success
[171/281] 60.9% | ETA: 34s | Speed: 3.3 items/sec | https://www.metroacs.com/                          - success
[172/281] 61.2% | ETA: 33s | Speed: 3.3 items/sec | https://www.q1es.com/                              - success
[173/281] 61.6% | ETA: 33s | Speed: 3.3 items/sec | https://www.aireservdallas.com/                    - success
[174/281] 61.9% | ETA: 32s | Speed: 3.3 items/sec | https://www.askmoss.com/?utm_source=google&utm_med - success
[175/281] 62.3% | ETA: 32s | Speed: 3.3 items/sec | http://www.facebook.com/apexheatandac              - http_error_400
[176/281] 62.6% | ETA: 31s | Speed: 3.3 items/sec | https://www.servewayhvac.com/?utm_source=google&ut - dynamic
[177/281] 63.0% | ETA: 32s | Speed: 3.3 items/sec | https://www.dallasplumbing.com/dallas/?utm_source= - success
[178/281] 63.3% | ETA: 31s | Speed: 3.3 items/sec | https://www.punbarair.com/                         - success
[179/281] 63.7% | ETA: 31s | Speed: 3.3 items/sec | http://scheatingair.com/                           - success
[180/281] 64.1% | ETA: 30s | Speed: 3.3 items/sec | https://hjac.com/?utm_campaign=gmb                 - success
[181/281] 64.4% | ETA: 30s | Speed: 3.3 items/sec | http://www.austinrefrigeration.us/                 - success
[182/281] 64.8% | ETA: 30s | Speed: 3.3 items/sec | https://atlasacrepair.com/                         - success
[183/281] 65.1% | ETA: 29s | Speed: 3.3 items/sec | https://www.dallasheatingac.com/?utm_source=GMB&ut - dynamic
[184/281] 65.5% | ETA: 29s | Speed: 3.3 items/sec | https://www.onehourairdallas.com/?utm_source=organ - dynamic
[185/281] 65.8% | ETA: 29s | Speed: 3.3 items/sec | http://www.unitedstateshomeservices.com/           - success
[186/281] 66.2% | ETA: 29s | Speed: 3.3 items/sec | https://www.evenaire.biz/?utm_source=google&utm_me - dynamic
[187/281] 66.5% | ETA: 28s | Speed: 3.3 items/sec | http://hcprohvac.com/                              - success
[188/281] 66.9% | ETA: 28s | Speed: 3.3 items/sec | https://www.poleofcoldac.com/                      - success
[189/281] 67.3% | ETA: 28s | Speed: 3.3 items/sec | https://www.abacusplumbing.com/?utm_campaign=gmb_a - success
[190/281] 67.6% | ETA: 27s | Speed: 3.3 items/sec | https://kassa-kool.com/                            - success
[191/281] 68.0% | ETA: 27s | Speed: 3.4 items/sec | https://greencollaroperations.com/?utm_campaign=gm - dynamic
[192/281] 68.3% | ETA: 27s | Speed: 3.4 items/sec | https://www.airproaustin.com/                      - dynamic
[193/281] 68.7% | ETA: 26s | Speed: 3.4 items/sec | https://www.idealaircare.com/                      - dynamic
[194/281] 69.0% | ETA: 26s | Speed: 3.4 items/sec | https://www.abchomeandcommercial.com/austin/hvac-r - success
[195/281] 69.4% | ETA: 25s | Speed: 3.4 items/sec | https://www.austinacexpress.com/?utm_source=GMB&ut - success
[196/281] 69.8% | ETA: 25s | Speed: 3.4 items/sec | http://masters-hvac.com/                           - success
[197/281] 70.1% | ETA: 25s | Speed: 3.4 items/sec | https://bigacnheating.com/                         - connection_error
[198/281] 70.5% | ETA: 25s | Speed: 3.4 items/sec | https://indoorweatherpros.com/                     - success
[199/281] 70.8% | ETA: 24s | Speed: 3.4 items/sec | http://www.castilloserviceforac.com/               - success
[200/281] 71.2% | ETA: 24s | Speed: 3.4 items/sec | https://greenleafhvac.net/?utm_source=GBP&utm_medi - http_error_403
[201/281] 71.5% | ETA: 24s | Speed: 3.4 items/sec | https://callsalt.com/?utm_source=GBP&utm_medium=or - dynamic
[202/281] 71.9% | ETA: 23s | Speed: 3.4 items/sec | https://servicewizardac.com/?utm_source=google&utm - success
[203/281] 72.2% | ETA: 23s | Speed: 3.4 items/sec | https://allamericanacandheat.com/                  - success
[204/281] 72.6% | ETA: 23s | Speed: 3.4 items/sec | https://www.coolatmosphereheatingandair.com/       - http_error_403
[205/281] 73.0% | ETA: 22s | Speed: 3.4 items/sec | https://hvac-austin.com/                           - success
[206/281] 73.3% | ETA: 22s | Speed: 3.4 items/sec | https://localair.biz/?utm_source=google&utm_medium - success
[207/281] 73.7% | ETA: 22s | Speed: 3.4 items/sec | http://www.cozydair.com/                           - success
[208/281] 74.0% | ETA: 21s | Speed: 3.4 items/sec | http://www.qualitylivingservices.com/              - success
[209/281] 74.4% | ETA: 21s | Speed: 3.5 items/sec | https://www.onehourheatandair.com/houston/?utm_sou - success
[210/281] 74.7% | ETA: 21s | Speed: 3.5 items/sec | http://www.masonshvac.com/                         - success
[211/281] 75.1% | ETA: 20s | Speed: 3.5 items/sec | https://www.serviceexperts.com/dallas-tx/          - success
[212/281] 75.4% | ETA: 20s | Speed: 3.5 items/sec | https://www.leethompsonac.com/                     - http_error_202
[213/281] 75.8% | ETA: 20s | Speed: 3.5 items/sec | https://totallycoolac.com/                         - http_error_403
[214/281] 76.2% | ETA: 19s | Speed: 3.5 items/sec | https://capitolcooling.com/                        - success
[215/281] 76.5% | ETA: 19s | Speed: 3.5 items/sec | https://www.blueair-ac.com/?utm_source=gmb-listing - success
[216/281] 76.9% | ETA: 19s | Speed: 3.5 items/sec | https://www.varsityzone.com/round-rock-tx/         - success
[217/281] 77.2% | ETA: 18s | Speed: 3.5 items/sec | https://www.aircomechanical.com/?utm_source=gmb-li - success
[218/281] 77.6% | ETA: 18s | Speed: 3.5 items/sec | https://fireflyhvac.com/                           - success
[219/281] 77.9% | ETA: 18s | Speed: 3.5 items/sec | http://www.cool512.com/                            - dynamic
[220/281] 78.3% | ETA: 17s | Speed: 3.5 items/sec | https://onairhvac.com/                             - success
[221/281] 78.6% | ETA: 17s | Speed: 3.5 items/sec | http://www.keepatxcool.com/                        - success
[222/281] 79.0% | ETA: 17s | Speed: 3.5 items/sec | https://www.arrowsvccenter.com/                    - success
[223/281] 79.4% | ETA: 16s | Speed: 3.5 items/sec | https://drhvacservicesllc.com/?utm_source=gmb&utm_ - success
[224/281] 79.7% | ETA: 16s | Speed: 3.5 items/sec | https://austinstarservices.com/                    - success
[225/281] 80.1% | ETA: 16s | Speed: 3.5 items/sec | http://www.youngbuckshvac.com/                     - success
[226/281] 80.4% | ETA: 15s | Speed: 3.6 items/sec | https://www.advancedairconditioningandheating.com/ - success
[227/281] 80.8% | ETA: 15s | Speed: 3.6 items/sec | https://www.westaustinac.com/                      - success
[228/281] 81.1% | ETA: 15s | Speed: 3.6 items/sec | http://www.austintrs.com/                          - dynamic
[229/281] 81.5% | ETA: 15s | Speed: 3.6 items/sec | https://callsolutionfinders.com/?utm_source=google - success
[230/281] 81.9% | ETA: 14s | Speed: 3.6 items/sec | https://www.acsuperheroestx.com/?utm_source=google - success
[231/281] 82.2% | ETA: 14s | Speed: 3.6 items/sec | https://abaaustin.com/                             - http_error_202
[232/281] 82.6% | ETA: 14s | Speed: 3.6 items/sec | http://www.lakewayac.com/                          - http_error_500
[233/281] 82.9% | ETA: 13s | Speed: 3.6 items/sec | https://www.unlimitedairandheating.com/            - connection_error
[234/281] 83.3% | ETA: 13s | Speed: 3.6 items/sec | https://turbohomeservices.com/                     - success
[235/281] 83.6% | ETA: 13s | Speed: 3.7 items/sec | https://temperatureproaustin.com/?utm_source=googl - http_error_403
[236/281] 84.0% | ETA: 12s | Speed: 3.7 items/sec | https://trinityheatac.com/                         - dynamic
[237/281] 84.3% | ETA: 12s | Speed: 3.7 items/sec | https://petrocelliservices.com/?utm_source=gbp&utm - success
[238/281] 84.7% | ETA: 12s | Speed: 3.7 items/sec | http://www.resiliencehvac.com/                     - success
[239/281] 85.1% | ETA: 11s | Speed: 3.7 items/sec | http://www.frostymist.com/                         - success
[240/281] 85.4% | ETA: 11s | Speed: 3.7 items/sec | https://www.austinsgreenair.com/                   - success
[241/281] 85.8% | ETA: 11s | Speed: 3.7 items/sec | https://goldeagleservices.com/?utm_source=google&u - dynamic
[242/281] 86.1% | ETA: 11s | Speed: 3.7 items/sec | http://www.chucksac.com/                           - success
[243/281] 86.5% | ETA: 10s | Speed: 3.7 items/sec | http://www.cssaustin.com/austin-air-conditioning-s - dynamic
[244/281] 86.8% | ETA: 10s | Speed: 3.7 items/sec | https://www.aplusac.com/?utm_source=google&utm_med - success
[245/281] 87.2% | ETA: 10s | Speed: 3.7 items/sec | https://www.acproshvac.com/                        - success
[246/281] 87.5% | ETA: 9s | Speed: 3.7 items/sec | https://ecoacaustin.com/                           - success
[247/281] 87.9% | ETA: 9s | Speed: 3.7 items/sec | https://www.alamoaustinair.com/?utm_source=organic - success
[248/281] 88.3% | ETA: 9s | Speed: 3.7 items/sec | https://grandeairsolutions.com/?utm_source=google& - success
[249/281] 88.6% | ETA: 9s | Speed: 3.7 items/sec | https://airsheenservices.com/?utm_source=google&ut - success
[250/281] 89.0% | ETA: 8s | Speed: 3.7 items/sec | http://www.awesomeairtx.com/                       - success
[251/281] 89.3% | ETA: 8s | Speed: 3.7 items/sec | https://www.strandbrothers.com/?utm_source=google- - dynamic
[252/281] 89.7% | ETA: 8s | Speed: 3.8 items/sec | https://efficienttexas.com/?utm_source=google&utm_ - success
[253/281] 90.0% | ETA: 7s | Speed: 3.7 items/sec | https://www.stansac.com/?utm_source=GMB&utm_medium - success
[254/281] 90.4% | ETA: 7s | Speed: 3.7 items/sec | https://hvacexpress.pro/                           - success
[255/281] 90.7% | ETA: 7s | Speed: 3.8 items/sec | https://coolmenow.com/?utm_source=google&utm_mediu - dynamic
[256/281] 91.1% | ETA: 7s | Speed: 3.8 items/sec | https://www.iairservices.com/?utm_source=google&ut - dynamic
[257/281] 91.5% | ETA: 6s | Speed: 3.8 items/sec | https://www.austinalpine.com/                      - success
[258/281] 91.8% | ETA: 6s | Speed: 3.8 items/sec | https://smartairaustin.com/?utm_source=google+busi - success
[259/281] 92.2% | ETA: 6s | Speed: 3.8 items/sec | https://www.championacaustin.com/?utm_source=googl - success
[260/281] 92.5% | ETA: 6s | Speed: 3.8 items/sec | https://trustedacaustin.com/?utm_source=gmb&utm_me - success
[261/281] 92.9% | ETA: 5s | Speed: 3.8 items/sec | https://citywideaustin.com/                        - success
[262/281] 93.2% | ETA: 5s | Speed: 3.8 items/sec | https://texascomfortair.com/                       - http_error_202
[263/281] 93.6% | ETA: 5s | Speed: 3.8 items/sec | https://bvairco.com/                               - http_error_202
[264/281] 94.0% | ETA: 4s | Speed: 3.8 items/sec | https://onehouraircentraltexas.com/                - success
[265/281] 94.3% | ETA: 4s | Speed: 3.8 items/sec | https://redhome.io/                                - success
[266/281] 94.7% | ETA: 4s | Speed: 3.8 items/sec | https://myplatinumair.com/                         - success
[267/281] 95.0% | ETA: 4s | Speed: 3.8 items/sec | https://eliteaustinac.com/?utm_source=gmb&utm_medi - success
[268/281] 95.4% | ETA: 3s | Speed: 3.8 items/sec | https://www.altabra-cooling.com/                   - dynamic
[269/281] 95.7% | ETA: 3s | Speed: 3.8 items/sec | https://www.infinityairco.com/austin               - http_error_202
[270/281] 96.1% | ETA: 3s | Speed: 3.8 items/sec | https://www.danielsaustin.com/?utm_source=GMB&utm_ - success
[271/281] 96.4% | ETA: 3s | Speed: 3.8 items/sec | https://www.precisionheatac.com/                   - success
[272/281] 96.8% | ETA: 2s | Speed: 3.8 items/sec | http://www.coolchamps.com/                         - connection_error
[273/281] 97.2% | ETA: 2s | Speed: 3.8 items/sec | https://www.foxservice.com/                        - success
[274/281] 97.5% | ETA: 2s | Speed: 3.9 items/sec | http://www.thecoolestservice.com/                  - success
[275/281] 97.9% | ETA: 2s | Speed: 3.8 items/sec | https://www.goettl.com/location/austin-texas/?utm_ - success
[276/281] 98.2% | ETA: 1s | Speed: 3.8 items/sec | https://www.airruns.com/                           - http_error_202
[277/281] 98.6% | ETA: 1s | Speed: 3.9 items/sec | https://blueskyheatingandair.net/                  - success
[278/281] 98.9% | ETA: 1s | Speed: 3.8 items/sec | https://www.abcaustinacandheating.com/             - success
[279/281] 99.3% | ETA: 1s | Speed: 3.6 items/sec | https://airmajicservices.com/                      - connection_error
[280/281] 99.6% | ETA: 0s | Speed: 3.2 items/sec | https://xtremeairservices.com/                     - timeoutINFO:__main__:Saving results to: data/processed/test_results_quick.csv

[281/281] 100.0% | ETA: 0s | Speed: 2.8 items/sec | https://houkac.com/service-areas/austin/?utm_sourc - success

================================================================================
EXECUTION SUMMARY
================================================================================
Total items:           281
Completed:             281
Success:               200 (71.17%)
Failed:                81 (28.83%)

Duration:              1.6 min (99.0 sec)
Speed:                 2.84 items/sec
Parallel workers:      25

Processing times:
  Average:             6.435 sec
  Min:                 1.230 sec
  Max:                 55.994 sec

Results by status:
  success                 200 ( 71.2%)
  dynamic                  45 ( 16.0%)
  http_error_403           16 (  5.7%)
  http_error_202           10 (  3.6%)
  connection_error          5 (  1.8%)
  http_error_500            2 (  0.7%)
  http_error_404            1 (  0.4%)
  http_error_400            1 (  0.4%)
  timeout                   1 (  0.4%)
================================================================================

OPTIMIZATION RECOMMENDATIONS:
  1. MANY DYNAMIC SITES (45): Consider using --use-firecrawl for better coverage
  2. LOW SPEED (2.8 items/sec): Consider increasing --workers (current: 25)

Traceback (most recent call last):
  File "C:\Users\79818\Desktop\Outreach - new\modules\scraping\scripts\website_scraper.py", line 397, in <module>
    main()
  File "C:\Users\79818\Desktop\Outreach - new\modules\scraping\scripts\website_scraper.py", line 391, in main
    print(f"\u2713 Results saved to: {args.output}\n")
  File "C:\Users\79818\AppData\Local\Programs\Python\Python312\Lib\encodings\cp1251.py", line 19, in encode
    return codecs.charmap_encode(input,self.errors,encoding_table)[0]
           ^^^^^^^^^^^^^^^^^^^^^^^^^^^^^^^^^^^^^^^^^^^^^^^^^^^^^^^
UnicodeEncodeError: 'charmap' codec can't encode character '\u2713' in position 0: character maps to <undefined>
